# generated using pymatgen
data_Si
_symmetry_space_group_name_H-M   P-6
_cell_length_a   5.93375308
_cell_length_b   5.93375308
_cell_length_c   5.82668200
_cell_angle_alpha   90.00000000
_cell_angle_beta   90.00000000
_cell_angle_gamma   120.00000000
_symmetry_Int_Tables_number   174
_chemical_formula_structural   Si
_chemical_formula_sum   Si8
_cell_volume   177.66868533
_cell_formula_units_Z   8
loop_
 _symmetry_equiv_pos_site_id
 _symmetry_equiv_pos_as_xyz
  1  'x, y, z'
  2  '-x+y, -x, -z'
  3  '-y, x-y, z'
  4  'x, y, -z'
  5  '-x+y, -x, z'
  6  '-y, x-y, -z'
loop_
 _atom_site_type_symbol
 _atom_site_label
 _atom_site_symmetry_multiplicity
 _atom_site_fract_x
 _atom_site_fract_y
 _atom_site_fract_z
 _atom_site_occupancy
  Si  Si0  3  0.01244946  0.70751530  0.50000000  1
  Si  Si1  3  0.17364242  0.41320570  0.50000000  1
  Si  Si2  2  0.33333333  0.66666667  0.23558835  1
